object AboutForm: TAboutForm
  Left = 414
  Height = 246
  Top = 267
  Width = 486
  BorderStyle = bsDialog
  Caption = 'About EPANET'
  ClientHeight = 246
  ClientWidth = 486
  KeyPreview = True
  OnCreate = FormCreate
  OnKeyDown = FormKeyDown
  ParentFont = True
  Position = poMainFormCenter
  LCLVersion = '3.2.0.0'
  object Panel1: TPanel
    Left = 16
    Height = 200
    Top = 16
    Width = 454
    BorderSpacing.Around = 16
    BevelOuter = bvNone
    BorderStyle = bsSingle
    ClientHeight = 196
    ClientWidth = 450
    Color = clWindow
    Font.CharSet = ANSI_CHARSET
    Font.Color = clBlack
    Font.Height = -13
    Font.Name = 'Segoe UI'
    Font.Pitch = fpVariable
    Font.Quality = fqDraft
    ParentBackground = False
    ParentColor = False
    ParentFont = False
    TabOrder = 0
    object Label1: TLabel
      Left = 0
      Height = 128
      Top = 68
      Width = 450
      Align = alClient
      Alignment = taCenter
      AutoSize = False
      Caption = 'Version 2.3'#13#10'Build 2.3.0'#10' '#13#10'Center for Environmental Solutions and Emergency Response'#13#10'U.S. Environmental Protection Agency'#13#10'Cincinnati, Ohio'
      Color = clWhite
      ParentColor = False
    end
    object Panel2: TPanel
      Left = 0
      Height = 68
      Top = 0
      Width = 450
      Align = alTop
      BevelOuter = bvNone
      ClientHeight = 68
      ClientWidth = 450
      ParentBackground = False
      TabOrder = 0
      object Label2: TLabel
        Left = 136
        Height = 45
        Top = 15
        Width = 170
        Caption = 'E P A N E T'
        Font.CharSet = ANSI_CHARSET
        Font.Color = clBlue
        Font.Height = -32
        Font.Name = 'Segoe UI'
        Font.Pitch = fpVariable
        Font.Quality = fqDraft
        Font.Style = [fsBold, fsItalic]
        ParentFont = False
      end
      object Image1: TImage
        Left = 60
        Height = 50
        Top = 15
        Width = 50
        ImageWidth = 50
        Images = ImageList1
      end
      object Image2: TImage
        Left = 338
        Height = 43
        Top = 17
        Width = 43
        ImageWidth = 43
        Images = ImageList2
      end
    end
  end
  object Label3: TLabel
    Left = 16
    Height = 15
    Top = 225
    Width = 44
    Caption = 'Icons by'
    ParentFont = False
  end
  object Label4: TLabel
    Cursor = crHandPoint
    Left = 77
    Height = 15
    Top = 225
    Width = 37
    Caption = 'icons8.'
    Font.CharSet = ANSI_CHARSET
    Font.Color = clBlue
    Font.Pitch = fpVariable
    Font.Quality = fqDraft
    Font.Style = [fsUnderline]
    ParentFont = False
    OnClick = Label4Click
  end
  object ImageList1: TImageList
    Height = 150
    Scaled = True
    Width = 150
    Left = 384
    Top = 88
    Bitmap = {
      4C7A010000009600000096000000841D00000000000078DAED9D6DD09D4579C7
      9F6F305399D24F916F7D61C6D22FC5713AD3C20734D68E8DD389B5A4ADD07E68
      CA383A8883D1A1CC40074BC1B680B515A5CDA04E6943D122540349E4D58C1041
      1B52C0408C94A7898420C61043530107673DBF3DCFFFC995CDDEE7DC2F7BBF9C
      E7ECCEEC3CE739E73EF7D97BF7BFFFEB65AFBD766121975C72C925975C72C925
      975C72C925975C567E71AFBFEAF4FAE043B7B9BDB75CE6FEFBBAF3DD3736BCD9
      3D74F159FEF5A1C7B6BA69F7F9E96BAFF8EFDE7FE1E96EDBEF2FF8EF3FBF7D93
      B3BF637F2B97955518FFA38BBBDCBEBB6F748FFDF51AB7EBE3EF5E1E6BFE0713
      C2D3B7AE7C9BBBF7FC53FC7BDFDBFA99899878FAE64BFC75DCEFD92F5DEBEFC1
      FFFB367FD27FEF073BB778CCF11B8B775EEF8EECD9E17E72EC48C6D98C17C6F0
      C97FF853F7F5F7FF8A1F6F71CA77375DB13CB6BB3FFDE7FE7D30A0F70EEFDEEE
      EEFBE39FF39878E5D0F75C1156B7AFFF657FDDAB2F1DF4D7801BFE176E7FFCFD
      45CF678F5E7ECE3256F99CFFC161E6B2D92860005E801F5E7BF9878EB117A6E0
      1EDE0BBF03C6F8FCC0FD9F3BE1B3A7FEE9FDFE7D2BD742590A46B9069E7B79DF
      934EEF87BF230C8253E18CCAFB59660E57C6C1358FDF70E1B29E03AEC421211F
      713D7C74ECC01EFF3FB291CFE10F7B5F70167BDF1664ABB0454586C259E175BC
      A776D9765B4C814DB05684E35CBAC3135CF3E09F9DB13CAE7013B227860FC69C
      B113F616377DCC5FF7C28EDBFDFFE84AF67BF0DB245C890FA9DC83FBAB1D56A6
      52E0D049F7123752EFBF7055D6C17A92758C29739CF90D4F1D79E26B5E67BEE7
      3DA72CCB23157849BA0DD73F73EB95DED693AC82BB24CBECF7A4CF17D985C202
      DF0FF1B3E7B31B4EF80EFA56D1BD908B7C861EC86F827B8B2B305BC636CDA57E
      8107ECB85959025EF88CBF21AF097321970977D2E7C1246308C66258B3059B4F
      B28D7B8077301EDA9160044E052FA1DE254EDCB1E1B73C96842BFB5CC224F796
      ECCE250D3FC926A35FB1A7A82146C08464A11D17AB6331F7751FC61419C9584B
      36AA82036456789F10AF708CFD9E78C77E4FBA1572D27E1F3D4AED952E08BE90
      83F6FBBCA6ADB411DE455E17D9A8B9942B608731B6FE26F152286BACEC127E42
      5E80B7E463D258336EE08B0A1F82CF49788AF11DBE55BE1FD3D9C56BD6B70127
      3237842BDA0756E04C9E37FC7DB84CED065B54FA21DB8FF50AFD26ACC80F40FF
      33A71997502E880342F985DDC6F58C21F28471AC8A9FBA05ACC197D2C3688BF8
      11DD4A72CEE22C6C97F4369E8BB9C633A02BD217DC2F23653A8E249F3417C10E
      E3C03C16FF8BB3D09DC3792D7F95ED6FEEC5787481A369053C830BB06279597E
      3478C9B69367E6D9D10F430C49BEF3DD213CDB100B98B0B63AAFD58FF215301E
      FC8F3E425F230F42FB0FCC3136319934F4E7E779425C21EFC56D31FF09DCADEF
      65EE8A17E14A3A2A557351361ABA8C970D9B3EE6FF67CE86FAF42CCE5DE95016
      57E0049EB25C7D9CC357F9E7C7C7C275E269AD4DCE3B47D12F5646A067B0E681
      3C94AEFAF007CFF6F6993EC386A3D2DFD4D8FACCCCF687E159CD25EB4FB53AA7
      5D0BE2BBF079A81BCC63919D6ED72EA4A3624FD387C2936C21D9F2D28957AA4F
      87B9020751EDBC114FF33EFD22BF9BC5DDBCE34A3A02FD23DE921FDDFAA7E937
      AB7BC57C0C2BD57767F98BD7C845FA8B3EE17FAD6359DF0A730D3D933AAF3A97
      7C4BE80BEA43FA42BAA8E62A7883D7E6754DC3CE37EB0BC38681BFD52FF49D5D
      339D079D8B670FE351ACDFC0AE1B23FF627AF93C1738496B4245710FB21FC11E
      3A57B8D6B052F5056BD3D9A2755CF9D6D147D11D907F5967385EE027BB7E293B
      51F351FE7DAD936AFDD3AE59AC447D6ACB9AB1FE1DCA33B0231D4A7A287D96FD
      7DC5FA03FD489FD25F7018AFED3A37FDE7E339D64E5E435F09853538B015F30F
      D0577C96D755CBEBF576BE2AEE8B39CBFFE22CD690E6A14FF5DCDFBCE26DCB6B
      F9CC33D6F357FABC6AA3C057F4A7F5056AFFC74AF1ED55918977AD1EF316BA26
      F660E8ABC9A57C414FBF6FDD695EBF809BB01DE795FBB151D0CDD105C056C654
      333F04BE64B0A43A29367F1EFA6348F69E6FCF9145E7161F706EE746E7B6FF95
      735FDDE0DCD68BC795D70F5EE9DCA39F726EEFDDCEBDB8DBB91F0F271E1DFF15
      F6768E5D1E0896C00758B9758D731BDF52AE7EFAAC71FDDC3963AC3DF7C8A030
      964B3F051F86E79CDBDE7D1C2365315584B37F593DE6B9632FBAC1CFA519F30B
      325EF883B173C3F8A8C1F4E99E3BC718688AA5227CF1F71B370C92BF181BC5E4
      B07F72567015EE2718528C9DD79DBE74413B788AE10B19B9EFA1C13C3F636175
      7BEBF71ABA2F45F12CAAD8BC43E05CAF8BB78DA5227CC15D03E803FC1160C98E
      4FB8376E8845B11CB6DD616C6D2F984227EF82A326616BF345BDCB457C3B215F
      C5620186A8BBD85829DA1D5B67EEB44D5FBFB65F4C596C6123F4882DC647310E
      DA33302B6BB0F878F173B286DE777C46EF3C15C316FA5D8F3291DF663D9A9A63
      456AF4DFEE2F0C0B53165BF857F398CE1EA6F0730E1153165B3B37665CCD9ABF
      B38ADF7C5AE55E5AC3F98F3F4C8BAD433997870AB12D43CED1E46DFA145C058E
      0E9DAC83B8A307C63EF514D8EA59D72AAB8F75F13BD810C4B710F33AB41804EF
      F74C81A9916E564AD6E2F76CCA597BEE747DE1651266F045120FD7454C9C7268
      D89C3EEC691B4A9C4F639F4245BD27891EF7AFEFE8C5D657EE02FC8BFCC57EC7
      0781EF943513F9B7C3FDD66D14F637102F85EF9F3628370A5823FEA7CFF540D6
      7A1BF3548D314E82E5C5077AE93762BFD943AE3DB054F9B595074C31BD6D15F6
      7C80619B83028E045376CF5A5FFB46BDCED321572DFF2E3A58533C7F797DAFFE
      2CC943E55B25DEB26D3CA9801730244E849BC0B672EE68EF5A1FEB4DBE6FF065
      371DDF83D5F7077BFBB3A99E451DD9037DEA10F006DC15E64DED82336DDE2664
      307250B886C72CEE3AD7D753D86735EC7E8FE991FC9C55FD5DCFA01C6F7DE629
      608E12A7A03DDD60493A562FFD427C5E0A3B70A487D7E22B62B99AFEF6D68B7B
      1B4FC9BFF0BC028D2DFC95DAF607CB31596B734DC155E85EB19CC33361078A33
      4AF8175AE3CA1136FB5A030633E854927FD6FF703C87DBE9496308E45BC01625
      BE10BD2AF47B201FFB8CE3F1FEC514638B3FBDA21FB0B1BD606B8FF1CBF012CF
      0E47D83C5ACA2D82EE0577A48AD30457EC21B57155F83CF87DF67DF4ED7B4F26
      87C45923995A1A53F8DE53AE1BF6BCAEA31CF9705738BF94EB54F9C75215700B
      0F82657B4616FCD8E75E35EFB74A618FD9FADC23AE14A652AE4382E912BFDB66
      D1D977459CA4F3D1DA58DB01B7E04BF908A79D4FD4892D981A575462B7223178
      9E1F89694EFD9BE0AAE758787085CE139341CAF113CB055EB510FB85CDC79A20
      F7B46B38F6ACA03EF3C2FDE8C85EF737DBDEE8AED9F20BC92BF7BDF989F7BA4D
      FBAFF6F596EF5CE2AE7BF02C77CD5D6F48FE5B7FB9F914F7ECC1AFF61EA71CCB
      97854E2D1E4961F3DBB3A674F603EFA1A7F3DBE0A96FFDEAE8E145F71B8F9DEA
      CE7C7CC1BD69D76CD75D2F6CEB5D57555E40D652186BF2B1D8FCE74DFD0D36CF
      BEEE59743E649F05BDEFF7BEF606F7969D0B335DCFDEB1E0F63FF770EF7D8B9E
      63F728488FC7DF90CA0F82BD87DD67CF6F94FF0C9D6A087B0379D60D5F3CC3FD
      DA53B38DABD50F8E4C81178611E7875E8EEC2BCA9D05E7A4C218BA16FE2B64E1
      A4F35CFA285FF9E7DFA93486EFBCA7DEB8B7F51BCC894B370E335F15B8825FD0
      7D908B70193E00BBA697D23F8B7E3594736389017BDFC685D29CB5F17D0B6EFD
      2DE5AEE79A0FDFB8E06EFC48F9FB83A95BD78FFF96F90E98DD7AD99B06133B8A
      BD3FCE21B5EA243BCD9E89B7B0C20BB9EAEE58BBE0D66E9E3C8E7C76F90D231B
      64CD82BBE382E9E3CE67DC936BF90EF82A831330B8E3B717DCDF5D51EEFA4F5C
      BAE09EB9E943831927E5BF055BE8EFE83CF008B6A0E2FDC2337B9AE831D87FE8
      EE607548E71BA1BB3FB0E6543FFE17DE761C13B6F21E98228FABEAB4EBE13461
      4A957BC4AEA7FEEEB631A6B84EBF71F5D5C5D7C3535C7FDFEA13F338F65DD09F
      A8E24F9BB31BBF401339C5582157C12ABE8B30DFBC72EE0EA52F7C1B97C69EB1
      422E9E7FC718371FFDE4582ED9F1B655D7FFD1EDE3CA6BDE8B5DCB3DB817F8E2
      DEFC06F8BBF6AA05B7650983279CBFBA743D6DD0F5FCE5FBC26C78AEF3900A6B
      3B8ACBA28F9BC416C043B1F369B92F7E52387168B92B957B40636FC737FC3FAC
      45D773AF49DF09F136ED3762D7D3E6219ECD827C52AC2658B0E756A35F8391AA
      18D0D9A392A3B390FF947EC03E553E0B3B8645636D6BC84B55BF53E737A8B475
      88E747C9278EED8F0C446EA16BE91CF63AEB77C840AD15E9BE6DEC8978F8475B
      DC158B17B8CD873EEFBE7DEC51F7F2EBCD6401F361CB9A72633C94DA741FD5AB
      3F7DC53DFFEAA2A32F6F7AFE4AF7F1FD1F48324E3AC335ACE08A36C33775F56B
      E691E253755E4DCAB9F5C8D17BDD59DF5C58AEE7EC3AD55DB4F7ADEEF61FDCE4
      165F79DAD16755F54D748159C2569DF97AF827DFF7380243EF7CE20C6F17A80F
      3FF23F7F90647CD0ABF055C12FC8403084FC4BE90BE19E367E017CA5D8AFC13C
      8BD9DDEAA3354FFEA29F837BFEFFB1D218C3472C5938643CD13E7B36D7B4F2E2
      6B073CAF7F60EFDB4FE8A3B0DFFEED854FCC9C5F09FB50EB9229EC62B0F2AE27
      7EE9A4BE89618CEBE833FA77DA7D95CB7CC8B82AB35641FFC04B177FF71DD1BE
      89CDC79D2FA7F157C04DAC094AB7464ED93147E7487D3E2BF74FA5CBC3E5C2CE
      FAEF9CE365E09F3CFD9B2760CA56DEFF8B67DFEB39AC8C0E3F54AE9A24FFD033
      9943C8B89097F43F9FC1E5548B2D64648A71D1F9D2CA053F3E17E4F413F634E0
      23A8724FE429BA3E7E575E53C12EFE7D2AB22695BF85F9A8BE5AF7D4AF7B7927
      5D74DBE15B4FE27D5B2F7F769DD7C38A7443FA6568D8A23D45F9E68EBD7ED4FD
      FB8B9F726F7FFC8DD1E75DFBED333DDEAC5E401FE9F30B9E7E73659DB410DB4B
      FB4395D7D69F9532B2E1842BF63354C5958D8F29AAA962F9421D2B8613AEA13F
      D1B7627AC555FFBB3E2A1F69E3D03015CB6D0D16EE3DFC85289EB065AED97791
      7BFCFF76443163E7DDE70FFE6D32B9A479A939C01A2C6B38E2137807FEAA6A0B
      C04F54B80ADE62FD9A7B815B6AAA7DD6F495957BF0FAA46BD11FB01963F8A25F
      C3BEF7E7DCAF3BAD77DEE2F7AD6F5105BCC0D3219E9073E80493E45A993959B7
      286F02361ABA94EC36780A1CB0978675E921DB03F49FB501CB7039F8B2E3215C
      BE67F7AF9EA47B698F789FD80A651FCF78FDFE0F9F343FE027B8199958A5DF78
      EE543290A2BDC6939EA929AEB407158ED259E829E3AE989376DE3187CB72DD03
      2FDDB12C3FEC3DD053ACAF05FE264EBF4B1F04BF831F31D4D1E115CD09DBE6BF
      7F6E4369BD9B67479F6ACBBFC0F822FB904DF0534CDFAE9A97987BE15385FBF0
      2BD03776BD101CA7F6BF63E3597DBC928E39B29FC2B9CFDF4B9F79D7493E7C64
      3CFA669BD8B267B585F30F3D3BF40DA00754956170B2C56519FF4BDF051CC538
      8F781C2AFA5CEA9C23C8B5A6FD04CF9DB7EBE74FB80F3654782FB80B3D01FDC1
      E6C84F81252A73325CF7873BD11D438EE2BD3AF20BBFBAE6D18746F3A7AD3557
      38894AFB7926FC5A756515FE29FC165EE68D5ED36F3A97C09F457DFE29C973B3
      D3B7E8085626D4B28F47FCA43ED7BDCE1D612DE6EF92EF8FB9129EC310ABB135
      63553810ACC6E2487836D6416D9BC03F6BA2759E116EB3BC9CCA171ACE03ADE1
      21B7B48F86B1E72F72ACC9B94DF4BD5DBB469FB3384B59E48B51DF63EFD4ED13
      6CC3901B8AF436E5CAE799E01A1B6B16C39762477CCE8A91CE813FA3680E8329
      F8C4E200FF6F13FF257E95367C56B6682F21FD813ECD7C510E3DF50FCFDF64ED
      4631A96056F945DA886DC7064207170EF0DB34B91F3A7D596C85FC8F8DE2D72E
      467D6A2B1CCEDC2A230B186FF944842978AB090E42AE62EDBE0D19C81A0D36B4
      9E53724B7E52B80C4C5495837C4F7A16BC67F77A3157DB8A190AB1D0D427838C
      08D7D126AD01A594EB214F21DB9B608AEFE2071557A1EFB7C1551478CAE206BE
      426669FD0E7C200B2BCD893BAF5FD6D591ADE00C1CF11AEE6BF3DC1BEB27A5A6
      E079F418F644EB9EBC2E2B63B9EE3F7FF8595FCBEA31C855C9AA32FEDEB2059F
      BC9D7375F5B33285F53FECB3187F20B7908555D79DA5AFF7B53790FEB263822F
      AAE93D917F764CF067978923BCE7A52F568E6DBAF9E03527F1540A1F1F3E53B5
      1FBF4C9B63A075676421FE2AF80A3CF1BE7CEF4DCE2797ADA933BAA8F059DB7B
      28ED7C4FB54611CA58E4D4B43835BEA3EBCBF8D5B48E2E4C31FE296495F5EFC1
      B75DF8ABB4DF2B569BC4C8A0A7C67C59DA4BDF26B6E012ABC32BD621D59A91C6
      1D6E4985AB70BD2E95FE13B6190EED4A76C04F700AFA0F3940E0156CB6BA71A3
      F09EEC49D63FE02C9D5B87FEC6FB55E21D9BCAAE3A7EF8A2829D59D6FF531657
      5A5711A7E0334B110B6575822EE45FEB1C78F78D1E3B7061EC73D98B6DB7C3FA
      A853AD83E1CFB071AAF062D13A6F595CD12E3BFE29EC7F70093EABEA84A9FCA2
      54EC3F380B5D0A9E020FC4E3D6CDA5A7FD1845B20E6EB4F1386DDA87D67FCE5F
      E2BC9BDE177DCDAED1FDE381CB6AE32AF429A5B0FDC05418A39D320E66129ED0
      9DE08C49F10C75F3ABC9FF198BDF03C33A4FA50B9B112E918C511F63F7A7D45B
      8AECF669B80AFD2229E255C014F749CD7FA5FA7A699D0E1F13F912C098CE62D2
      7E527CA375E3D0E5B7473F075BF89FF90B0F2A9EB4CBDCDAF4B58D87E12FB868
      CA85D803937C65D370253F442A9F12BABFC5542A7EAE62AB31EEF68C1AD986BC
      97625FC3243B1339D8B57F0BDB5A7B0952F9B0435F19382A8B2BBBEEC47789D5
      69F27CAC039C6BE23152CC9DBA36A0D657C42BF8ACAAAEDB4C2A701EF62076A6
      72D6C8078B2C06DF5DE6AC005B8A7357DFB3B6D1C4F6B27B82C278D549B8C25F
      6BE3D09BB401B91EAE37A590F54DFC96D2B153E7262A2AE0087B51984E79BE45
      59DF163101612C0C3EC9BA58B53A3C7115D370451BE4FF6E62A7721FEE1BC6B7
      D77D96E4FAC7EEEDCB3E4CFE36F1B14FFA0D7B9E65AA1C037575A330A6890AF7
      D4E10D1B6F8A1D26CE624D2E862B1B5B0EBEAADAFFDA731AC6509F57102BD667
      C12720BD3D95AD86BE8EFE66E319749697FCA67D9E8D834E1BCA0FB80B195245
      EFB2BE72CB17E8E521AEB8AFCD8B5075FD12DCD8B8844971D3432AF808529DD9
      A6F82B380A9B5339DBB5F6D8B6CC2D2BC7B48FCE6283B1077765C74A7E782A71
      53BC07BE425CD9BDB455B80A1B817B84F3008E82171766A0A4CAFB0186F0B36A
      BF201CA8F8D4D4FBF3CBC80E641CF31D7F0E155D888A5D5894B38071237E74DA
      5AADF56F2A5ED5C66F29260F5E291B2FCDF5B453391662155D51CF813EC7F5AC
      61F1FB65F67BCD7A0153E8521653BC07EEB01753EBEF60883E0613C41EC03F8A
      A32ACADD302927067FE135B8A108638CB1BE832E6E7185EE66FDF4453E70B004
      F6F1BBDB3DCCD3DA177B1E643A7EB5EBF65FE2DB5D277F5319BF429B3175D3F8
      0F7F838D794606DA5CCC4DCF5FA2BFE837F415ED8D2B9347A56AD5FDF80D300B
      7684B330DF81D5DF90938A9BB7F19A6A375CC33565B154A7DD92EF609C399742
      1F1357A0372BCEB8AB221F29BE0CEDF552DE51F0D5249F29BCC4F8693F4EEAF1
      283356DA1366D764D09D9079F227A073D93D43BC86FFCE5B5A1B6E034BD32A6D
      138FD6D57DE02B614BFB21BACA75ADFD19C2163A16EFC9E6440FC3075F25072B
      B282F83D645BD7E3B112ABF8B5AE9C0CF1C518B78D2FF0831C646F75C84DE0CB
      E6A029EB3B93AD953195A69EF968B5FD3E3A131C3C690D98CA7892D7A369EC42
      DDA2BD149287C23A38AF2203C37DA4B95697E5E87455631EC273BB6C9E041B23
      D3D5B9A5C83C784BBFAD78D2711E8755B5B8933E41BFC9F8AA5E891DABAABFCB
      2FA9F519D651A8CACB01E6D0E379DDC579507094649E3FCB642927A472833491
      C7CA0FA338918CB1627E4227C5775677FF0463061F684D59367E5F3E2CDA833D
      085F617F208F85A93006B06E9C837C895A5BCEF83A8EA773977CBC29F388DA5C
      EA7EBF684FF8920D08A6C6E7891DC7146D62BD50E74137D9170D6EB19FF12FC6
      72B8B6397EF2A1DA75177814FB55396BBA6C0BFE0EEC9C14FE77E41AFC60FD12
      E8EF56DF82BFFA38B387B629E73672199B41EBD08A3345D7E26F92F5EF251F36
      73151F937C134DC637FC3ED80537AC354BBED8F5416C2DAF0B8CC6967516F688
      61DBB7D5167CACE805A9B8099C1097A07C38C899307F0BF862CCE0853EF625C3
      43365E46FBAAF1D75A3B95F753E5220DED48D671895BC02F88CCC426B27B828B
      2AD7117F0C4E58AB013BACC5C5ECF3583C4358D099D516E26DE0397051A62D70
      1F3CC8BD993393DAD274BD647CD6E92A2F4FC0977CDBE859969BC0539F67B782
      75FCA092C7B48736ABBDBC567BBBC03E63C118C335C8CFB0325EE0B1CA9855DD
      EF5CB52D705F17E7A43256F0809DE376DFF150CF3F65ED59E7D4C1A1369F1FBA
      17ED1FE2B9556DE16A68B12DC88DD85A88EC2EC62D750EC6A63ABC7CA3CC07D6
      112D372117C9737DD7EA717E9A219E8DBDD271C5782043907793D6E88AF620F7
      55E0506CD5707D87766E593A0F143F9CCEEF1DC219F6A5F5C8919CC25EA0CE42
      6ED8A2A23383626B6CF291B69183B1E97CB0588193B053953751E7F570CDC31F
      3CDBEB8FB384AD59E52864857437C64479A0599791DC40FFC5FEE3B321CB1274
      28C5C2C3BBC848AA7D3E3E6F125793CBF4C27E29740F784A7DAFB1910C617E83
      277B0ECE100B9809ED0BE60DFA3C18D3F329A744D77B0FE785A7A8F42BBE1EB0
      857F51F281BFE449D3388536D6508B7218D91CCCF8765987B2EB03C846E60DF8
      CB32311DA6C090E634D842EF055BA1FF5C3EAA2E7C1CA98ACE9CB67E052BBBC9
      3369F356F7B9DEB9520AFD0B86B0BD6D7F0A6B60ABABD88436FD25FF75D55AEF
      57087DEDE85560095D91CA9A4F9685CD0AF2007BA8688E321EF8A8F97CD6755B
      ED31B479DE992BCC27F42D388B781BBB575AF9D23352CA17FA11DD1B3D5C7A45
      916C434781B7AAC48A0F95B7F48CE04C738AF922DE92CF8439875D420ECBAC6F
      959FBBC804ADEFB12F5D3660D177D88BB752E483C594CE01A30FF81F39C9E770
      98D6AFC01573AB8DF5EA95A29FD3673A7FC5CE433005B6FACC6DD055D11A94F5
      91E86C3064231C05C6A4E7C35D604C7EFA8CA4E378C2CE967F13FF53A887730D
      EF83AD36CE9A19629F589CD12FD88D70387D10FA50988FE41691CE30EFDC0537
      A18B1237C57E4DC5B9C47C4FF41D73967E1DB2BF3375619D13BC600BF2B7E8D9
      D1BDE48B80BBD00D66C9DF92B2A82F6C4EBB497A123C469FE16398375C159DA5
      1DFA23E823F42DE66A8AFC96B352E803D93EF2CB4CE2B318B6E6CD0662FE159D
      2BA0D8463B3FA57759AEE7B395C85FCAE7C93C92AF89FFE19F184E98A793FC0B
      B98C8BE26B8AF220294E5BFB47529F35DD97FE893EA0BDBDE847D697075F5BBF
      8C2D3A0F7D967DE96D17EC3F9D6B1BF30BD377DA37825F956BFBCAB193A2080B
      60CAEF3959775AF479B49F208CA182A3C06057B9F467D51FA13DAFB15C5A760F
      10F3171F4D2C7E967E476F1BEAFCE539F101C0B5D82EE225C518E87FED8D912F
      8A67525C2ECF0F1615AB3B0F3E85BA05FD897E8CC5CBC25D8AEB523F4B168671
      F3EAEB21C57FD07E6498F424C93A9E457AA370A3FDEBE264CB5FDAFF60F74175
      9D8F7A56F58CD07E063736D7B3780879880FC7F212E3474C4E5FF1CEB405BE01
      D36A97E26485259DBF1DF229CF6DE3A2C0534C1707877C065FE535FBFAB691F6
      F9E097971F1E5B92B9CCF858FC68CE97CDAD83FF1A5D195F23AFC37362E527B2
      358657DEE31E360F0BED947C4236CBBED0BEF598DF4EE7A8859C0D8E66598F1C
      A21ECF1C966D0877E1EB53BE0AE6B59DD355CF88D5188301ED7B440EC966601D
      53797BF43938B767C7506893F0005EC0B7F67F87F8D19956317BD772169CC773
      48FECF938FB38B62E32254E015F919AC7C60FC19F732F241B614F70147700E31
      243AFF47F6BDE2AAC103FF8B3FC51FF090F227861C13B6517A3B380677B1768A
      73357794F733FBA7BAE1B1505E8807CACE6B70C4D85A592ABCEABEC295F51B29
      D7AA384BF80973D92BB61FAC87BA94FC543159A87D02607E9ED6F786625FC10F
      D667AFB12AAB8728EE1E5C811BC650BE31E5A8033BFA1F9E4127E71A743BD9A1
      C2554CA7935C0E7338690E14ED5FA76DD91FD5BF7C648E4B3E2137E09469EB3C
      60C4E63ED46B9B072376561E58B4FCC5EFC4E4A0C57A18072B5948CD7EF26117
      C617DD44BE532BAB62453C83DC0447E849E1BAB6EC337845671C2BEE57D75A3D
      CDE2877BC26B45D88103A9D957305B180353937CA3C2CCA4BCACD2A16DEE02ED
      37B236A7E41A38027BD6173E84338472E9AEE8DCC64979098497F04CDA1817F2
      7EE80BE7BD6CC7CD9FEE8F2C9C14D3C51A49C857D88CE872311E42A6A1A38771
      E7B9E4924B2EB9E4924B2EB9E4924B2EB9E4320FE567648D0272
    }
  end
  object ImageList2: TImageList
    Height = 94
    Scaled = True
    Width = 94
    Left = 24
    Top = 88
    Bitmap = {
      4C7A010000005E0000005E000000F44800000000000078DAEDBD057C14D9B63D
      DC38C3E0EE0C360C3A0C83BB5BD0080951204208240102C13D4070022121EE09
      1112E24112DCDDDDDD83436C7D7BEFEA6E1A2E739FDD77DF7DEFFFD52FE757DD
      D5D5D555EBECB3F6DAFB4854AAFFF1AD109522548A5229FCA3138E6D0B296CA2
      D7B7FCC06E1DEAF668D7BA65E7D6CD3B7668D5B4578796BFF56ADFF2B76EF4BE
      4D9F0E7F34D0EFD7ADC2A128EFC27FF13B85D5BF5144FD9BFFAF6E1A1CBED986
      F7ED5EB153EBE65D9B35AC37B172B9329BE9502695AB545E50F94C057F5172A9
      BC549F9B59A9ECCF9B9BD4AB35B15DF3C65DF5BAB5ABF883DFFFCB7AFE3FB8B1
      9D152D52B8F037CFDBB175F376BFD6AB3D875E665179A58B67A37AB531B84767
      8C351C02176B332C70B2C5B2690E05AB6739E7AF9EE594BF74AA7DFEBC89E30A
      A68C3186D5888118D8B51D1AD6AEF17D9DF035B31AD6AA3AA76DD386ED747FBB
      48E1429AFA2FF47F156FDD03C4132D1BD5ADB98C5E5ED6E053A5724558E80F81
      FB0CA7FCF0756EB9E9411B720FC4F8E51D4F08CE3F9D1C56703A31A4E054BC3F
      A46CF5C3C9385F9C88F5C18998CD381EEB53703CCEAFE05094577E66D0BABC44
      4FB7DC8025D373173A58E61B0FEC8ECA15CAE9D6C3E5FAD52B2F6BD3E497563F
      6803FF57F0D7E27D3E2DB250AB5F1B1895FEA9C46E0D066D5AFC86D913AD0BB6
      6C5C9EBB37CA27EF447C40C1A9047F9C490CC299E4509CDC168CE3F1813812E3
      8353C991B8B4371D177627E37C6612CEEF4AC4B95DDB7076FB561CDF1682BD41
      AB7030DC0387A33C7184CAB12D9B70748B270E84AD2F48DFBC342FD06D5AAE8B
      956141CB46F5B47550AA78D1DD4DEBD530DAE139BFD08FEEF97FE156A452D9D2
      C227AB664C2AD4BC613D1B7A7945F3BC0E660688F470CB3D10ED9B7F2A210027
      C97E4F2586E02261FAE0CA39BC78700747E30270788B3761EE8B7D84E99D3347
      F1575B7E7E1E9EDFBF85FD61EB09FFD5D81BBC067B02576177E04ADAAFA4EFD3
      DE6711F6F82E4186F7927CBF859373C78DE8A7DB06AEFC5ABBAACD2CCBE1827F
      F952250AAB7DF0FF1A4E2956A44831CD9B660DEB1A162B5258F02E59A204163A
      D9E4660479E4B11D33D667522371F570169EDCBA8A4FEFDF7E8325DBF3BE9035
      82FD6EFF65B879EAA01CCFCBCD45F6B3C778FDE4215E3D7980F7AF5F6ABFC375
      B6C3732EF6503DEDF67797B2CB7B11D5C96DF98D638961D8E5B500BB36CC44A6
      F742C4AE9A993763AC616EC912C505FFA2850B5D695CAB8A91D6F00B172EF6AF
      CE3D747345BAB46E2EF7D8B4419D66B5AA56CC546CA930964C199F9B19BA319F
      B9E304E17D3A6D8BE096FBE5F337587F7C9B8D47D72EE2E2DE341C26DEDE17BA
      0E07C2372073F362DC38B15FCEE1FAD91DB002993E4B90E5BB143B37CDC7D33B
      37E4B3F7D9AFB08BCECDA4E3597ECBB07DE35C1C4B08F9E637DEBE7886AB47F6
      606FC87A64AC75C18E75D311E7EE92EF6A313C5763FFD5CBFF9CD5A866E5E6BA
      CFF62F49E2450A6B6DFCD77A35E76AEEDFD9CA3837D5C73DFF449C0FF174000E
      91ED1E88D8881389A128C8CF171C3EBC798D5BA70FE3747A8CF044A6CF62B2D9
      39B2DF4BF6BE2F642D613B0FD78FED53707FF796DE2F4086C74C3A6F1E12DD6C
      71EFE2690577B2FD1DF4D94EC27E97CF52A4AC9C8C7B9794CFBE7CFC20F5A2E5
      A6BC3C3CB97D0DA7D2E3A85E976017FD46949B73BEF5901E5AFCEB57AB384F47
      FB14FB57C2BCCC4F25C40F35AC5DBD5EEDAA150FF3FDB66FD904116B16E41E8E
      D8804BC4D9578FEC16CE25BD8183519BA8FD2FC7CB8777E4F95F3CB88DF4B553
      B1D36B3E9505C411AB71667B1CCE672513F66EF23EC36316AE1DDD2BE7E77CFE
      247570EDE81E5C3FBE1FF72F9F454181528777CE1D27ACA760A7F712B2F579B4
      5F4CF5F4463EBB7BF114925738E374C6563C26CE61BED26CBB83D72169C5646C
      DF3007DBD7CF8297AB4D6E9B26F535B67FA46E9572BFF033921F2EFA2FC02B85
      6A55A928BEB371DD1A2368F789EF73BAB549CEDEF08D05AC27CEEE4C10BBCEF9
      FC91EC7C03F6913DF39E6D59C31BB95FBEE038D9FFB9CC443C248E61FBE7ADA0
      A0007BA8AE327D97217D9DABE0FC57DB974F1F09FF738275C686B964F30B91EC
      EE44BFBF0DEA8BE160B42F62678F46C2623B242E9B884CBF15B846F577FBDC09
      242D7742EA9A19485E350D296B5C91B27C22B62E752A98643820476DFB9F7EA9
      5A7E243F6BF5723F172EF43FC4F9850A15D2C63E8DEAD498A769977E4B5C738F
      93AE3E12BD19BBC9B79DCE8815FC78639C776D5E445CE221DC7B2C21586BA7BA
      B6A7E11EB663C67D177140EA6A175C39BC5B6BEF970F65127F9CD172D51DC22E
      7EBE95602E85F0676C59E368B677C4418CF31EE2F56D4B27226E9E259531D8E6
      360129ABA713E62EB47745C2127B1C4FD9426D6C0E92E91A6B9D2CB4BCF34B95
      F2F3BF62F0CF8D770BEB604EDC12C0F7D3B16593FC44AF65F947C9C6B3884376
      07B8E340A427698985787CE3B216CB3D6A5DC7FA8EF17CF7F2B95607BE266D72
      E3C4011C8D0F227E5884B4B5D3842798A7991FAE10D6E27B893752574FC3D6B9
      E6B8AAE61EDEAE1F3F40784E4086E77C24AF9C4A75B68E385CA9CFCF1FDE7FAD
      54B28367776FE2F4F604AA9F0562E3C92B5DC4DE63E75AE2645AAC9CF6EAF103
      A4AD9F83A42576089E3721BF4DC35AF9FCAC752B970BFC6763AF6BE7F56B56DD
      C6F761D8BF5BCEAEA0B505074389BF496BB34EB97268977035E3CF76AD79FECB
      07771217CC113B66EEB87BFEA456C76C271FC95833576C27DF98B66E26E1ED84
      748FD9487277141B57707F8B1DC4DF191BE78B4DB3D6D7E079608B0F613885B8
      643CF1D23E358F7DC62EE2944331FE7870F5BCB417CD9615B81A096E0EC42D33
      B0758135F6867B8ABFD56CECC3B3823D104FF511B3C4B140AF4373E19D3A95CA
      24FEB3B0FF0EF354FE7D6B8341397B8937F687AEC589D428E410CFEA6A69D67B
      E9A4D33436FF96EC9B6D398B747506F9B093A95BB4E71F4B0C47D23207B2BBE9
      D416DC703C2902F7894B9EDCBA86C4A5F65467BBB4B8B34DA7AF9F4DBC300D59
      01ABB47A34FBD91324125727B93B8B5EE48D793F6E9E1512DD2713B6E390BE61
      1E2EEEDF819BA78F10E613C8DEA70BF6E91E730567CD6F3CA53621D5496DF148
      4238E2E658207EA9134C7AFD29D8D7AE58264DC7D715FEEF73A3CAD6A056D5AD
      FCBBE38D87E6EC274D789062F24CBFA538BB2B417D9FF93A5AF9297DEE85BDA4
      C335C759A7A4AF9F29FCC13E53A33798AF4F65C4E1E9EDEBA2F97437B6EF0BFB
      3214BEA2F3D388C3D9FFA511565B17DAE0DC9E34EDB917F66DC7E1B840EDFB2B
      A4A5E217D9D179D65427CEA45BA608FE6CDF49C44789CB2753FBB0A718ECA186
      887030361091538689CFD56CFB2237236EEE182410F6667DDA69EC3EFE4718FD
      A3B66A15CA1651F8BC9A37FFDE387DB273D2D5BBFDDCC8DEDCB19F34CA4EE2F2
      578FEEA9EDFA1971EA3BB5CFCC21FF1A873BE74FA86DF231D9FA6CAAAB65C4D3
      53F1F8E695BFD127EC8B19876BA4131943E61E8E3D8F6E0D94F87527C5433BA8
      BDECA0EB6C271E4AA736B23F7C130E44FB6187CF729CDF93AEF5E79A788A7D2A
      F38A16F31553097717C4CC3213FED16CE776A7216AFA2824AE704104617FEFD2
      59B5DEBD8B2D334CB16D9913B62E76C0A81E6D7214BE2FCBF96A55A59F4BFC43
      63AB52258A1553744BF569FC3B23FA74CDCD24FEE0789275F0A9B468C27C81C4
      88E73293D47CFD46FCE36BAD0D417C9946B7B05DA7AD9B419C320DE777A72A5C
      4ABEEF31710ABF67CDB39DF829D57D12E1E38C78C2206CC104784F358587A331
      364CB592B2918AEF0C1B84CE7740D47C5BC493DDA6D0F969ABA6502CBB8CB829
      13D9CF9F7C53A7CFEEDDA2DF8FA7F632135B5C8DB43A89B7DB678F13E686D846
      6D804BCC6C0BF2197E5ADF9CB4723A6217D891069A849805F6E8FFE76FA275EA
      552E379D312A59B4C83F24B6A2184DE28446B5ABF7E3EBFFDEA44141BACFB282
      43511BB5B11FDBF3E5033BC82FCE15ECDFAA35CA95C3998481A3D6CE3531A2A2
      15EE930F7515BD97E9BF827C433469FAA5C8583D99B4F424842F9C80B553C6C0
      69F450F4EBD01A7FA7BF43A794408F36CD6137BC37964F3046E08C31849B3969
      F1493844DAFD36F9F04F6A5D939BF345303F9614F94D7D30CE094B1D89EF2709
      EE912E06389B99A2D551DB964F41DC427BC42D9A806D4B26226CB67541D3DA55
      0A14ECCBF657EBBDFF6A6C5558F1A155AA162F5AE4355F3B7AEDDCFCC3911B88
      5B56E0C29E54895734DBFD2B6791B2CA997CD676AD6E54B4F754F1B99FDEBFFB
      C6EE0EC7078B5F94987F2DB5F76553B0C2C912237A77FE06CFD60D6BC3B45F27
      B88C1E8CC5368658E1608275CEE65256381863918D3E5C4C06C2BC7F27B46B52
      EF9BEF0EECD216F3C78E44A08B89E8CE34F209E776A7933E8FC6EE900D5A9FF3
      FAE923D2A04E88272C13DC1C85C3B72E1C2FF86BECEB09F99DC86946748E23B6
      12EEB10BC623718903BC9D4DF3D539B56CF2B5D574B1FBCF6CD52B9693EFD6AD
      56693B5F77FDCC09398279E02AD281AB29269C2F3E339BEE59B3BD247E67DED7
      E408CF67A5880F4D53FBD1A777AECBF19B678E09DE9C1B8C749B8C2966C3BEC1
      CB76782FAC75B640C4A24948247D9D4E9A92E3F78CF5BCFFAE105F6550DB49A5
      B82781FC66F8FCF158EB381AF6C37BA25AB952DA6B8E1FD90FBE2E16D84ADA26
      7ABA018E2645697D00E7D5B62E1A8F98395662E7710BEDC8D60DC9F75CD53EDB
      7EE29B28D7D1D84A751347751247B8C7CCB713EC175AEA09D7D7285F6A076356
      A54CC9FF14EE85D539A05FEBD670907B361A9C73206C9DE86EC655B3DFE5B384
      74FA426DEE49E2C257CF25DF243E94EA248D74FA4ED285ACC353099F43B1FEC2
      DDB1D466A79A0ED1E232B4CB1F5843586F759F2ABE927D26E39D4A36CAB14DE2
      4A17892BB92410DFC7BB4F413C6B113A3F893EE7582A8D0AE39F462575D554C4
      2C9E8835138D61D0ED0FEDEFD80DEF8330F2075BE798212B68BD6846DEDE90EE
      CC0C5843FC6E44BED3190FAE5DD43ED32DE2FD88A92309F349823717E6F958C2
      3D86FD0AD58359EFB6394A4C5B6EA29A6F8AFD67F8E5B75F6AD5A2DDC7BA552B
      226DF3B202D6E8ACBD99C739F6E1BC1FF30D9734F28FE7481F326F6AB4A4C696
      5897A71006199B168A8DA7AD9D8E3553C6A244891282C3C81E6DB179A6ADC449
      3BE9BA122F11B68C65B2BAB0EE48A563C1736DE1A2FF07463551C1B4950AA35B
      526946FAAA830AB346B5C72617338A6F268A368C279E66DD984ABA31913488F7
      540B18F76CABC57FA1B501A26711F7AC9B8D178FEEAB7554BEE4EA3FAAB52D6F
      ECEBA3675928BC4E4583B7A6C4CCB3257D64871057AB825A154BF3B53F36A856
      BEF67F946F4A142B2A7AA85EF5CA5BF8FEBCE639E5EE0F5E29B9D553E931149B
      EF91989DE31AC69E7944B0273CF7476ED2C62B1AEE7C49CFC4B9BE4CAAB384D5
      AEB01EDE579EBB41F54A5837D99238689668C294B533046F6DF90EF3A8450E30
      6EAFC2FC092370986285F3C7F7E0DCB1DD38B63B1949115E709B620ABD3A64CF
      831B2170E618F2CFA483889F9917789F4CEF13A92ED691FDFFD9A8B6DC83519F
      4E0872216D48F1EDF59387BF893D385F77EDC44144CFB6227C6D15CCE7EB626E
      2BB6CEB86F996B4DD7B087DBD8A1A26F6A96FF399A312C5EA4F0BF575BCA794D
      EBD7EACEDF371DD2273FD3D78D34B4FFDFE8314DFCC976CE98337F3397A41386
      BA7AF8EEC533D8499C11B6D8097FFCAAF8BDF1237A139FB8880ED7E09DF21DDE
      9CA762CC134967B33F5C396138AC07D4242EBE40228A7CF4A7D724EEB2812F54
      3EBFC6E7B74F706C4F322CBAAB30D5A8BD5697C4BB4D147FC99A9B4B32C5B3D1
      C4139388FF25EEAC59031B1C4D103BC318699E8B713C3506C792A391BA7E1EC2
      270F17FFF92DE65FF18E996723AFE3487F4513F63173C76158A716E2671B562B
      DF4317D37F23972EEDA252D952FBF8BBE14B5DF28E904ED7E495387FC5FE5D57
      C7F0C6F95BF69D3BBC16490CCFF929CEA75C39B20769A4257D66D969DBF7B209
      264AAC43769E2478BBFE106F8E25259E249E608E9FD4B714227D56A2E0D32B7C
      7E710F5F5E3D509787F8F2FA2172DE905DE46423C26B198C5A90F6A2F6B14DEC
      DD8170A7A2C69D356002D54312D58BBBADBEF6BE5692F68C5F6043588F44F814
      7D44CF1943E74F54F38AAD82F7BCAF78F371BED696D96310E2D01FD1F3ACA53D
      6D70D0CFE3EB95FFA9D801C6B274F1A285FF3DB6DEAC7EAD41FCBD89A6C3F332
      BDE67FF59114671E8CF6911CE1EEA0D51413A67DD37FC33A3DC9DD09DB89C733
      3C1710B73A227DF51478CFFC8AB937C53862E36B5C7F68E3BA78733CC998735C
      CF3E74747315CE1CD98582F74FF1E5E975E43CBFA5536EE3F3B35B28F8F01CFB
      890B8754562192E21AC15D8DB7B62C52B08F251B4E5A3A09DE93CD50B382F032
      965A8F4412F98258B54ED4F8CD181DCCF97B5C2249DB30DE09CB26E3CCAE64C9
      ED5C39BA1FE18E03316E7077C1BE51F50A83FF2D9B278D2EF552FEE7927BF83B
      114B27E71D8B0F14FFC8B1D1BEF00DC2273B49936F270D99423121738AA66F93
      738E7B433D44B3A479CC917E63FFB90E5ACC03E7DA0B8FB32ED4F5995FF176F9
      06EF44C29A75216B149F696670D06F43F1D64DE43EBF892F8F2E21E7F195AFE5
      C9553A7699C4D4639C3AB81D83ABA810423E9871678C75F1568AE22363C86613
      8987FCA759E0D79A95E43EDD6D461057136F308768EC5BCD25AC1BB92D843AEA
      21C36B296E9C3EFA4D8E99B5D136BADEA68906823BD9FA5EC6B4D87763B5BEB7
      F5560DEB745274A35EFE8E8DB371E9C04E6D2C271C4EB1F70ED28D6CD39CAB62
      9FC8AF35B998F3144B718E8FB56504F1B906F38039E3855B985332E83BAC0FD9
      D61335B6FD1DDEDBDC394E77460A1D679D68544F856D11DEC87FF7049FEF9DC2
      97FB67904345F60FCE523927AF0B5EDFC5B5734730BCB10A7E33C66871FF1E6F
      45978C97124DB832CE7E53CD51B9B4A2B1364E3246029D2B9C4D9F47CF192B58
      474E37C1BE285F3CBA71E59B7C31E743351AE844463CC2C8E62DFA77119E6F52
      B362E7BF63F312DBD6AC542E84CF0D7173C9DDB96126AE9F3820D7626DC5F6BD
      937CE776E210E6708EF1B7139F33B7686CFED2C15D92B34D5A3B0B3D5A37519E
      C1650C613E4BFA15E248DFADB41F86F5930CE4753AFB54E2F3AF584F967C6D32
      E19F42C723C946ADDAAAB0D87114DE3CBB8B9C87E7F1F9D6117CBE7D4C5BBE70
      B9731C9FEF1C43EEE38B78F9F03AEC8634C6725B3DE1DBD885E3B55873BCA3C1
      5B570FB26D33F68CB7F467572D4FBAD052F4E196D963A5BD9CDC9E2071ED37F9
      3BD23F9C7FD8B6723AF645FA2839103A27DAD518EBEC0D44DB542D5332F42FC6
      4349FEB24BAB5FABD0EECD804EAD19DF028E7734792EE69043B17ED2CFB0C36B
      B196C3B970DEEACDF3A78A564F8E42CA0A27389BE8C9FDCF1F375262CC34C237
      849ECF9038DA7974574C34688B91A4F9DCC6F446EC3227F19B6964FF1CFBB0ED
      47529B5E64D90BFDE81A1B163A0ABFE43CBD824FD7F6E3F3CDC3F874E3103EEB
      163AF6F9E611399EF7E611124237A23F7D37788E8DE451984F7E84B72E6F6BB4
      E0622BE5DE4D48EBC7906FE5F6A6EBC7441B3F7EA0CD43ED8FF64780752744CD
      30131FC8DB9E706F044F1A5CD0B76D0BBED6DB3F1BD4A8FA835CB1D4C36F756B
      588BDE986491BBD77F99D83473B9663C11E7578E274792BF9C24F833DE7173CD
      71363359E1363A6F17E979CE11CA7DF7E9203E93310F231F37BC810A69317EA4
      EFEF098E47B212317FA22146D656C165487D2CB5EA89B9A3DAC2AE8B0A432AA8
      3063DC601CCA4C2489489AE5D1057CB8BA071FAF1F206C0F22FB6216AEED8926
      AC0FE103D5051FFF48C7B95E986FDE3EBF8B5533C6617843F22B33C712F60E82
      B7AE8F641B8F9EAB70789C5AB36C99632D363E6E40077986C5638791ED8EC293
      BB4A3F2D6BE9835B43103CA12F0EC4046AEB2062DA28843A0D93362179CD0BA7
      113EA93FE6980D169B6F50B59CED0F6C5E78A75891C2197C4ECC0AD73C1E27C4
      1C92B2DA0527491FE86ECC39DC07714A72EA27455B0AC7902F889E37165DDBB4
      947B0E5BE0808C75C42DE4EF0D7F65CCFD49E7BD45FEE777C8FF40F6437AF003
      E9C093073210B07E1156CFB68307D976B4FF5A9C39BC0BEF9EDD46FEEB3BF848
      B6FCFECA6EC1F7C3D5BDF8747D3F5E9EDB813D5B3692ADEFA7CFF6D2F17DF439
      9703F870650FBE10DF643FBD8D4DE463B8CDACB21FAEE847E67889F3ED24EF15
      4FEF63E87DC82CE26F2A121FCDB7118EA95BA90C6AD5A983CD767DB19F385D13
      03068DEF216D236A9625DEBD7AA1B6F90078F451E1584A8C3ACFF658F23B3ECE
      C6E25F8B142AB4E3BBF855ECBEDBEF4DAAD3EEBD61EF8EEC370BB4FC4D7CC276
      7D3C25EA6FC6D1E96EF7AF9CA778DC198B6C8D04F305CC2FEB9478C879703D6C
      5C3205B91F5E20EFD33BE4BE7F4532FB313E934DE6BCB88D82B78F841B3EBF62
      4D7E0F79AFEF21FFF9757CBA7D14EF2F67899D33DE8CE787CBBBF191F6AFCE6E
      479CD712FA7CB71C93C275C3E712FEFCBD2FE40B3E515BD9111708538A732DFE
      20FC6D072168862542665AC1CBC910738DFE94E37AD4BE4636252D433E817D69
      FC425B2C51F3CDA4E13D1033D354B0E4ED406C10C25D8C10EA3C1C170F6629E3
      483E7FC23DC2E0B3BA9FEC21F9DDC0F1BDC91F8F2BD06B2B7EEE43BB46356B7C
      3F3EBAD92F3547F16F2CB137C9CB225B4F57FB4ED6838C3DF715F37BEEBFE7B6
      C6FDA8ECC3B95F896D3F71D924C42E75468D4A15F07BC35A64E3CEE4335DE13D
      CD1C26F4CC0FAE9F215BFF40D86723F7ED53E4909D7F7E7A039F49FB7DB947BA
      E4DE49E4DC3D811CF2991F09E3B797B2C88E3578EF161CDFD1B1B71733659F7D
      6E3BDCA7DBE0D1F164F95C735CEA49F0DF8BF79732F1E1E651E4663FC07DFAFD
      2DD48E9C4CBA61740715CC3BAB3061442BB8CF205E09DE80FDD476A336BB6328
      B5CB95E3878ACD47513CD4B77523A84A5585874527E92B91DC25714EA05D7778
      1916C789F478EDD812CDC6BA32CD7309429C46100F8F83AB414FB1F9C6D5CA1B
      EB708DE05EA56C291FD1310B1D73791C67A2BB33614D7A837067BDC231502A69
      BFF8C5B6D267BC63B31BF9DEE5725EECFC7192A35D6C6BA8C41E76869297DD46
      BAD0BAAB0AA11B1711B710DE1FDF22F7DD0BE4BC7E44767E87C892CAF36BA407
      4FE1C3F5437873692F5E9ECF147BCDBF7B94F0DF43D87DC5FBEDC59D787B6107
      DED1FED5E95444AE9B43F867C83129FCB91A7F2E6CFB5F8887F26E1D2282B84E
      0EE8293EBEB84BB6780E77AE9C22BEBC8ACFD98F90FFF18536DF909518AEF804
      570B2490CDBB8F1BAAD8FCD0CE14CBDAE2C39B6CC1F6DA8943C2291FDE2AEF0F
      2784636FA42FF1FB366C25FB0B711C8A88999688262EF2183F4238BEC24FC57C
      7FC0F1677F6F540749EB66E7B35E3C991E2B9A89FD38F773726C9A48F8F37812
      1EF3A0E86C67897FF8FD36D2819D9AD547ED4A6511B36492E89270E2CD41A555
      384AFE930C5DCB2F392FEFE30BC5390788BBD62E9A8E052EF6301CD8057F9046
      371C3610536CCD901AE04E18EE121E797341C1FBEDF9ED62E76FA83C3B9982F4
      E0957843C75E9FCD508ED36B3EEF0D15E6A48F64F7770EC66377B417B687AEC1
      B1A400DC389C8AD7D78F012FA81E5EDD92B8F7CBF33BF842B6C0F797F7F1253C
      DDA6600A71631CE1CCD8756A5207F57EF9059BAD7BE094DA6F7E3F562D6EF124
      F85B7746805D4F84B98C42247D2F728605A2681F3CD524BF79EDCA5C7FE77445
      64F7D64D24DF6B35A43752574D29602EFFD176F5D83E8AF96C91B276A68C7D60
      CC959CD574784D53340CF7FB70FE3B89EA8171EF5F5C85CCA47020EF03BEBC79
      4A1CFE0078731F67F7A660C1146BF8AF5928DF8B080FC59D5B37B1DE7D21F4F5
      7A63FEC2455834652C619A2E586613B6AFE8F5AB3369784DE5F98924D2B51B91
      4DAFD9F6F9387FCE75F0E1D22EDCD91F83A96347C8B58BD4AE0713D3D1EA18AE
      88D2AF327A28EE9DA498F0C50DC29E34AAE4779E1161BCC7B5B38760D882623D
      8A91395F33CBB88F7CC76DCC1044B918E0FCBE9DA2ED985BD8367706AC4330D9
      F796B9CC4D6315BC691FE2349CB4E4106C99655960D0A9998CF5EBD0A8A6263F
      ACFABD61EDDE7CDD79B6A3F2D3563A496CAA195B7BEDF801AD26E5DF49E7B142
      14D768F2846CE71CC73B1A28B95DBF1963655CA892FB9E8CF9163D2986698447
      B7CE2BF9ACE7B791FBEC063EDC3D83BC87C4F94FCFC36FF974786CF050F4C28B
      E778F654C97B0E1A3A047BA33CF09138FBC529B253C2F7F5A9142AC978792211
      973282E4F5EB93C9CAF1D32952272FE858E086E5B87DFB163C3DD6487DF2E660
      370665EBD4C3E98C70C4FAAC80ADE930BCBF7D0AB9CF097BE21FCEABE5BE7D8E
      4FD426DD5C2C318F342D738B8FD32879B651DD5A219A383F707C1FC138C17D9A
      F856C63692FC74C4745344CC3017CCFDC6B447EAC6251253C5CDB386935E0789
      5D9BD6AAD8573BD6AE46E549D28F37C52A9773561A0EDB17E98D88C98390B169
      91765CD0EEE0F5885F3241C1DD5DC9596D258C5BD5AF898E4D7F11BC799C03EF
      250FBBD4092EC39B62E6D80178417124EB16CEADE472DC79FBB83ADE3984B5B3
      C763C182F978F6EC19BED06F25C66D91678DF65C848F1777E01561FBEA6492E0
      CDE5C5F16D7876341E2FD4EFB9F0E76FCEA4E2C9D1044CB436C5E387F7BF8E89
      3A7C50AE773C250878708204D8493C3C918E37D78F20EFE935C9AB7DE142DA95
      ED23216C13C6FCA9223D3F8EED156A4D82802926AC51103E6D34C2A618926D5B
      0AE6E184B966CF981F8A0F93B113DC0FC43E7AB1696FE1F8BA154B3B6970AF54
      BAE406B9E6CC71B9BB03568A1EE776944AB17E2AF179F26A571997C1E3E076FA
      2E47BC9B83D87A823A7F42DF937B7232E843B1EA646C959CB7BABF81FB8949DB
      4C1E54178B279B4ACC94FB8C38F5EE498AF78F4A0CC431CF971B07B027723D16
      4F190333433D6D5EC76BF114BC3F974E38270AC62F8E27E0C531C2FBD8569D12
      AF1CA7BA60FB7F72782B06F752E29ECD3E3E58B664216C0D7BE3546A10726F1D
      C43BD6FB140BE49386CA7D7856ECE0F37DDA53F9FCF81AC5152FB187FC9B21F9
      9B30C292C72A4D37E821D75B653D0431B3AD84F7A3668D41E42C2BC13B8AEA22
      78A21ED58581F41DEB8E858D257B5F6FA327B8972B59D45387E213AB55AB86F0
      39E3F20E6EF1D1C66051D3F5C91F9B4ADCCEF948F61FCCEBDB781CDCCA69C431
      53914A9F2DB33350EE69C2282493AF8DE3DC1FF733508CC8AF39EFCDB952AB96
      2A6C0BE7DCD66325B72271FD01BCE798877C60DECD83B4CFC2A3A3DB707B5F2C
      664DB4C48C09E664C32982A982771C9E1F8DC5F32331784685F7FCFEC5513EBE
      556CFEC1FE2D1839A817F1972B12BD17E222F1D13BD2945FAEEF57B429C7BCD4
      C63EDD38ACC4BFC4639FAEED153BC8210ECC27DC83288E33277B0F23AE669CD7
      D82AFDEE53477647F44C7304390E43D0C4C1C4397DC997F6868F794B24AF5F80
      D76A4E96F107776E22DE7D3AC2A92E7C9D8CF2CA142FCAD748D6C1FD68BB96BF
      519D8DC9631DA3C909DCBF720E578EECC5E54359DABA637ED9BAD89EEAC30C51
      334C046747FDDE4A1B741D433ADE51C15D27D71DBB7002B611E7784F1E0567E3
      8EC87E7C4372891A5B178D2EBA65976891B7E77720F7FA1E6486ADC1E8910309
      CB440573C297B17E7A381A4F0E6DD196A787B7C871B6FDECD3C9B8B32712CE56
      2385F33F5F252D4F98BF516BA1776A5DF496EAF2FDF158BC3FB6051FCE24E123
      F9E2BC173729CE7A48B6E185218D5558613D80F408F948E26C3F6785E38D3A37
      450CC5558CF10EDF55D813B11907B786E2DC9E0CE91754C6E6E4E0DCDEED08B4
      EF47DC3F1491AE544F938DF29AD7963CF331063C688E1DC7ADD70674694B3EC3
      3C5F937FFCF19CB97C8959D9CFF25812F6B99CBB1DD1B9257E2A590251F3ED84
      57E224CFAD294AFF028F3789205F34A6BB0A77AF9E421EC5F11F39EE97D85FD1
      E9AC1B19F397A7D3F0FEC276EC239F3AB06F373C3D128B9784E9D3C3310AD607
      A3F0E440249EEC8F90D77CFC31BD7F90E98F473BBD70296E39E6D91BE25ECA5A
      3C4C5B8F47E91E78B663239EEFDA841759DE78B57B33B2F7F9E3DDC1107C381A
      89F7A71391F7EA2E6E93A6779B620143C27C9D3DF94AC23BDCD50C1154C2A699
      A27DD3066840D8A76D5A2663557FB4312F705DACED4271CB54D293E463D91784
      4E35CEEFDAB40EE37EDDCDA27F11E3DEED4AD1EB87C3BAFDC963F10BD897B25E
      E43E51D6351C8FF21851CDFC00DD8D7D6DEC227BB46D5C1BDD5A36129C35FD68
      52D4FD329A3C2CF7695A51EC7AE5CC21E43FB94CB8EF5370A7B6FF4E8D3BDB25
      E3FE9170672DD3B9737BC23A5A6C5D30277C1F13DE8FF68509D60FF784E056E2
      2A5C0B77C5B51067DC8C988A8B212E9861A38F9BD1F3F070DB123C4A72C7D3B4
      D578BE7D1D5EEEF224DC7D90BD3F106F0F8511F6C1C42DD770EAF02EE8375261
      FAD086C22D5BC8CED9476A4A1461CFF6C5361FB772968C5DD58C3BFBF4E11DDE
      ABE7A8C8782DF2859789276249D3FB58FC8110677DC6BEA0FFEF0DF8FB8F86B5
      6BF2B35EC796E579EEBF618F369C072F885B6447BF69426534B5274BE9974C59
      375BC6951CDA1A8233992962E76CEFB7C87F84D1FD54AF5A0523BBFC2EB61EAB
      C55AC19BF3AE9A1CEC967976B06847B89F3D4CB85F52F84570DFADE04EF111C7
      44AC193F11EEA9FEEED0EBDF83385CE117B66DC17C6FA8607E37C30B17039D70
      D1D706570227E25AE814DC8C74C5D5C859301EDE0FA78267E249F2323C4C5E81
      27696BF06CFB7ABC10DCC9DEF707E0CD5E3FE2A13DB87BFD2C0C7E5561A15937
      E9DF88A467621BD5601E46AFB790ED5BF66E23B8FB4F35C32ED2ECA99E6E4858
      E14ACF3741CEDB1F13846C753E5CF20564AF8C7FCCC289AC7D0A86B56FCADF7F
      D1B765FDF283DA37AF44AF5F9BF6EDC07D0D05D2EF20BA7CAAF441B01EE43E9A
      9879A4A76692569A6628E377225C0C113B97DAD01C5BB917B3DEED9020B9D66F
      FB1562D4396ECE018691FFB7ECAAC21DE619D2914AFE70DF37B83307BF249DFE
      8134CCDC49565839633CDE9EDA86C76A5BD7D8F99DF44D38B7692C2E788FC545
      FF09B8CCB893BD5F0B9B8A077173B0D2D1007EA4439EA72EC783C4E584FBEABF
      C13D9B70CF210D19EABD1216AD54A24D22D4386B6D9DF5A2CB684413EE7603DA
      C9B36EB21F8E90890311E83088E2257A3DD98079047ED6DD104CB1D2B1D4B86F
      F2F567B2D2E06FD5B6C0B8577BFEFEEBDE2D7EA934B07D735EABE2B509E196E4
      3EB9807196A2D682F1A205D5AFDD1C65DC3D97AD6ECA1889B0D9D6722FE30674
      12DC05671DBC35796ECEB97A3B196292613BBC7C487AF9DE2935BFEF53E7B5B2
      242EE578F31DD9FAD51D2174DD8A389FEA8BEC93F1787CF02BC7DC271E3FB7D9
      16A7375AE1BCB735D9BB1D2E054CC4D560275C27DCEFC6CCC2A94017180DED83
      1BB10BF13865051EA732EEEB08F78D0AEE7B7DF18E7CEAEB075730C5A22F9659
      74176E11CCBF2BA12E2662EF13F53A2AB84F18A13ED7545DB86E4CC81758481D
      F95AB5933A3B9D992A9AFCE699E3F0356F5130EA2BEE15F53AB62847AF9F8DE8
      DA9AE39D028DEEDEAA33DE64AB76FCC357EE165FB97802426729DADDB26F7BC4
      737FE4BCEFFA15A8705F02E7B9678F6C0E8F25532926BF2FF1926819ADBD676A
      71679F3ACBC11C6BE64CC43BD21A5A0DC3F64EB85F8E988DF39B2C05F30B9B19
      F7F162EF57839D7123DC05D7896B1E6F5B88551467862CB4C1AB8CD584FD2A1D
      DC7DF07AB7373E9E4BC53D6A7BA69D08CB89C389C3CDB5B887E914057733D80F
      6CAFC53D72FA6884908D33DE612EC662EFEC47C3681F4ED7099962046F93C6A2
      23B34237714C5B30A49DF0CCF37EADEA97B3E8D7A124BDBE37B05D33B6E97C0D
      DE71DF60ED2063BDB968B83B463D96274C8DBB61D7DFA5EF528335F7E3701E9B
      E38938B2FD506A177A74DEC903DB51F0FA0E3EA9FB877479269BB4CC976B7BB0
      9BE2A756AD5BE2C1C118BC3EB94D34BAA219A37137DD13177C6C709EB03E4F36
      7FDEC70E17FCEC89DF2709CF5C0F9F861B5133F160EB7C9C0E9E81E1A4E36F6E
      75C3B3F4356ADC15BFFA3A6B133E5FDE85ABE70E6304F953AF49FAC2EB82A3E0
      6DA2C6D444308D7235C5983E0ABF7B3928B887AB3F0B99324A8B3DBF66FC4305
      7F0BD2F843E06FDB47F44C9F163266EBBE61A7A63FA9F5FBA52ECDEAF398917C
      0DD6BCDF327FBC60CD714F38E1B6D1C944C63C44ABB984B923926CF9B75A95D1
      B77563C5C6D578B38DF39EFBCC42678F83416DF2476BE6E1CB9BC7D20FA7C44C
      1ADC49CF5CCC240D9F856B59915055AC8564DF65F8783E43C90550ACF492E3A5
      23D1E233AF074FC2CD3027DC0871C4CD5047DC0A23BC4327E376E434DC8D9E89
      DB31B3A9CCC5D3E4A598653D02A14B26203BD3034F3318F74D78B5C79770F712
      6D7F99B4D5B07ADFE1FE5D610C1967A3CECD951C14F90EB66BCFF1C304E308AA
      23B6EF2566A4D7271BCAEB303A1E32D948BECBDC13E46C90DFB1514DA8D77DD1
      6CFB7FAD59199173EDF21863B667DE07CD1883A574DF29140B6D721A8DEA154A
      619D8391F04924D971C80C65DC2063DEA87A0544CC1A2BE3A838A7C1B105F785
      ADB61F86C14554F05D3113EF5EDE47EEF35BF842DCCEF1AA82BBA2DFD9DE3FD1
      DE6381B33CDBE5ED217877364DE2D4A747E2707F5F04F6862E87D9A0CE58603B
      1C81A4B9E2169A913635C52617234C351F845584C77E2F675C0E9F89BB710BF0
      2C6519D2D73B61E4E0DEA2675EECDC8017995E784DDCCE3CF39962E3EBE78F42
      FF37C67D24616BAAC649177763C1984BF7A67551BF4A19C179C1E83E986FD21B
      B133CDB0CE460FCD6A578471D7E614E39B90F6308617F95EA9032A61540F7E93
      46E635AA5A969FED800EEE3C861241AE637219EF68B273F6911EEA310DABC6EB
      6386497F79DDA1491DC193F19D38ACBBE03EA69FC27B013C165738661C426758
      62F2885618D154851DF1C1F8FCF6297289D765BCD183B332F682C70168E255EE
      27E27CB99BAB3D3A746C8B8747E225C7C571FFA343B1B0331B817ACD5AA2CC6F
      BF43D5A81554B55B405597F4741D2EF4BA712BFAAC3554D55B60EFA6C9789CB8
      048F9396E142E402F9EC5CE462BCD9BD4970671D93BDCF0F9FCE26931EBE80B1
      FDAA619DDD601DDC357CADE66C7AEFEF64809F8B17C1C0D60D09DBD130ECD40C
      7D5AFE82403ADE4BE10F8CEAD20CFED46E6CFAB6C13CE35EA4F98CD9CE05F74D
      E3876AE61EC76A40AF5AF6277719E7E26892CB78338F2490CF9C6CA0C4FFBD7E
      6F88C9FABDBE8E419A660EC7E1DDD1A45645C2D91AB3D575B2D65E5F726F8CFB
      ECD15D604EB1E985A39940CE1BC9B172BE8F751B8F81F972F784E25BD5F919EE
      DBCB3EB7032DFE680DAF252EF87839132FD5F9DDEC534958E46846BF511BBDBB
      7746FB0EEDD0B1637B2AEDA474A0F73DBA76448526AD306C400FDC889E4FF192
      1B1E262DC723D231E623FBE340C05CBCDBBB192FB39458F50DC5AAEF0F85E2F3
      F39B584FBE7E626F95F451846AF95929CCD76CDF1E764ABFD3F8FE6D89D78DD1
      BE5175793FD3A03B5445145CA68DE88261ED1ACB6B47BD0E88A4F3021DF54977
      8FC2AA310304F7CAA58AAFD0CE73AF5E618C8CDFB01E9E1B45FCBCD24E1FA9CB
      266185ED482DD61EC42FC33A368779EF3FB1DA4E39DEBC6E15C1789DBD32B6D3
      D5A837F1B98D7090D9EF2A2486794A7F47CEFBD7C87DC37DAAF725EF9443362F
      5CA3CE47BEE7B11784FF8323DB603B7A18AE12C7734EE515F77550ECFA34CB0F
      D7A2E66281BD01D9763374EED401ADDBB695F23B157EAF6AD00243FB77C751FF
      E964E74B49B32FC383A415C8DEE581F5AE56D8B169063EECF7139FFAE64010DE
      51ACFAFE6090D4FFCD4B276140ED72B9F540B27933C537AA0B73347307DBAF8C
      07A27DB4EB68187751B87E9DF560B88EEC8AD9863DB068746F2D5E738C7A209C
      F00E267B8F741985B946CA1A1FF52B951EABEDF7F8A57A07A5DFBC7B018F6F18
      49F1B069AF3FB1C26604EC0677C6D8FE1DC43F06BB52FCBAD00E8B2D072B7D8E
      C3BA09CE81D3CCE4FDB00ECD24DE631D39AE8D0ABB12C394FE3D6DBFEA43650C
      298F6764AEB9735CAD27953C0D8FC9D811B21A770F6E15DC5F1E4FC0E39D5E78
      90C0B1FE523C4A74C3DAA9DC6FD488B06E2FB80BE6359A62E2E8C1B8B2653E9E
      12A733E68F525652598537591BE1417E2A76D5647C3C1840DCEEA7D8FAE1307C
      381E8DF7A712919F7D0F47F7A66160091E1B3948D129C40DEC1F830977E60BF3
      1EAD94B16F764310336334F335965BF417FE5E336E90EC3D6C94FCB56DBF3662
      E311538DB0C1564FF6744CE69E35AF55B1A306F75EAD1A56E0350007B469C263
      020B165B7D9DFBC2DC114BDC6133B023AA962B0117C35E08257DB46CEC10C198
      C720F3DEA08B92BBF09B6C2C7D3473463683D7F2E9C8FBF80AB99FDE93D9BF16
      AEC9E17E1D1ECBFBF0A28C21109BE7F15FA46B6EEF0E277E6E00B72963F0F640
      A068BF2714F3307E0F98339218D3A5584B7E4455B739BA7521CC6B37C31C9B91
      B813BF84CE5562533EFF09F1CBCB1DEBF1668F17AC0C0660D36C1B7C3A1C84D7
      FB03C5D63F1C8DC0078AC73E5EC890DFCE7FFF1499C951E85F4685A563FB891E
      61BFC836CF9C5DAD4C097469524BEA6381492FC196F7C3DBFDAACCA1A8521A9E
      5427CC2BCBCCFBC2BACF1F30EBD60233A82D10EE05FDC817F0BA7E5D899CBF1B
      47B3AF5AD99F103CDD328F7D23F3B7B42BF381F0721CF5CD9C2FC3AEADE03CA2
      3B56DA0C4314C5D6B1F3C66181F900F96C9E693F6C9D6F0D1FE751B0E8ACC2FD
      6BA7C9E63FD2DF1BE943E3F11B39CF6E2A36CF7D4E64F3EFCFA5495EF07AE25A
      FCD6E64FCCB4D1C7B9A8C5A4FBD64B6CFF94B408C79B0F93C98693DDF1227D25
      62574C14BE771D3702F7390F40F5C3BCC2E7714EE005617E3B69150228CEE8DD
      BB2B5236CEC0C7C32162EB1FC4D663F0E16C2A3E912FE736F7E5C179E4BD7F8E
      50CFA5328EC687F00B155B1F053733A50F73EAB0CEE247BF9FBF59AF9232776D
      89691FACB0ECAF3DDEBB455D8410CFF84C1896575519EFBAFFFBB5336B942FC5
      6B0A3277E76E5D602BBC1D44FE3378BAB9E0ACCC4B2E8D8AA58B7DF39B3ECEC6
      92A7613BE7F7FD5A37923EC62DD40626F464CD3E07F99FD8E6BF8E5792FE7BC2
      FDD3EDE378776A1BDE916D33D7BE3F1281B8B5D3D0A35B27A8EAB7C0D9283764
      67798AEE7E96B1164FD315FCB91D5C8F5B4ABE400FFBFD67E1E5F6B562E3FC39
      9FF78CCE7F4571E9DD947518A9D7179DA85D5C4F5A8F8F47C2C9D643F1E15894
      E47E3F5DDA89CFDCD7C5BEE6E12514BC7F864B27F7626875E29309C348878C12
      2D62D4A9A9E2E38847C289334CBBB5F80683EAE59431C4CE433A62EDD881A479
      EAC371707BF84FA4F88ACE5F6AD647B8BD5AE912CB75C67128730D6A57EEAD70
      76D7FC38B2571EB3C398776CA2CC032A5352E98767DF5D4AFD7A5887A608253F
      1431C342E6008DEBA7E48D56DB0C45EC1C2B783B1B61685D150EEF8813FF5A20
      E3F35E529B7E0EBC7B828297B790FFF40A72896F3E9E49C43BD276AFF705207C
      E5143858E9E378841BDEEEF5C1F39D1BF17CC706B17DC6F429639BBE56B4CA43
      AE0735D6FCF9F31D1EA4D337227B8F372EC4ADC4CAE96371346219D569B89A5F
      2275F865AFB4B79C8717F0E5E90D147C7A8993FBD230BC16DBBB81E8110F1BC5
      978D203E09653D4EF61BE8A470C902E39E18DD55F1AF35D4D82F21DFCA7E348C
      CE0DA2F3B80F767CFF3F95F1D8D5CBF5D5191729E3F4FAB66EF433E7863BFF56
      17E1332D0B983BD68E1FA1ADD322450B618E495FE10FAF4986586D3B0C21D34C
      A53F268CB0E7BEDF0DF68ACE31A0B82E7206F7475910FFF48011F9D8BD299178
      F9F8265E3EBC815B978EE3F0EE1424C78620656B184E1FC9C2EB47D790FBE432
      DE9F88C3FB03FE8859E78A1B64A3EF4883705FC54BD2DD1CE3BF50D78182EF06
      29FC9E8FF3E72F3395BE8DB7FBFD71297E350E852CC2C74341784BDAF1FDA110
      B93EE73A855F6E1D217E392BDA96E7EBF038426F77574CE8A152E27CB2D531BD
      94B9E24BCDFB89BE0F9E622C1A279CF08CA0B6C03ED349AF8316A73E6A6E0998
      3482701F89C049230A3A3692F55B1FF7685AE7E7EFC6040BD7542C555CC6BE7B
      4CD0CF8D21EEE0B1378B2D0761825E27784E34203E1923633119E3E8D996C227
      DC1F132EE3172CE8B815CC7A29398C95E3F4A41F3284B4C154FD3618584305FB
      E12D64CE86593B95F4B53A12FF3B7454C18CE2C5C9A3BB6157F216BC230ECAB9
      79084F7678E209E947F6AF9C3B7CBDC747F2882F09538E7DB8EF4830A6D75C27
      2FD5FD48AC57B2F9DCCC8D787730109FA91D7DBEB8033957774B3EE6C339A54F
      85F5EB977BA7C5CF7C7E765BC68B5D38BE5BC62C7B12C7B0CDAE259DC2CF32B8
      5D3385A72D3BC0DBB415FC6CFB22C89130A5C236CD9F39E9B547DF96F5C817F4
      4628B709C23D6CB2015659F5178E295FB268D85F8D07FEB586CCC5619CF378DC
      7738E1CA7DBAFC9AB166BB669C791FA6D31713396B0C021D0623CC6928B54BE5
      5E7B34AB2B793CCE670793EDACB0198879269DE03EA637FC887F22642C9595C4
      2A61AEE6586BDD1FA38993163B9BE2DE8D7332CEE3EDFE00BC3D184A7A3B58C9
      9793CD72AC2971FE1EA52E644FEF9518D41FAFC91FBC3912291AF513E9A66777
      2EE2E6C5E3B87AF6301EDE3C87CF2FEE209FF82DE721BD7E70019F9FDC20EE7B
      81578F6F602AB5CDF9466D94DC0A6137ECCF4632CE6989415B843A0E4366A817
      0EC6872361D52CC27D8460AE94918231F72B31E652276ADC6DFBFEA1CC73AA5A
      46EF07733EC4EE47746CC6F38B6F13FE089A3A3A3F52CD218CB182B3994EDFD7
      6844105E11332CC90EFE40BAF772E29187C80A5C8BB17F2A6D6EEA88AE923F55
      F24AA69277D2F4E548EE8E9F4F9DBB8B9436638939C39BC09CDAC0A5338744EF
      BC23BCDF1F0EC75BF287AC45B80E38EE79437A505BD4C7187BD6A5EF9EDEC289
      FD19F05C361DF6235AC1B4AD0A16C475367D4B63F5DC0938461CFE96DA15CF4F
      E3F997D974FEAA993670201D20F12971C76C836E0A67525B4C58EE82973AEB8A
      F0BA0B926B64CC09E310E29E2027C5C6A5509D04535DF84C189ADFB89AE464EE
      0C6ADDA0D85FAC5123F65FA7E2CF8B651CB569BF5C1E53C9797DDD7EC670759E
      3F826C95EBD7DFA63B4EEF4A91FE5CCD7CD640C7E1E8F0ABF4E1628DB59EE450
      83A77C8DBB43A67E1B8B4B5CA88E53B6503B586ADE1DE61D5464F7A4336F1E14
      5E16BD4DFA8FE31DF68FAC4B94C2AF43E435F334DBF54247130C2E443C46B1FF
      EAB1BDE14B314EA0B3217C1C8661C188DF60FC0BC5F73643B02D6233766E0BC3
      4C8A396DBAAAE41CE6EDF5F45E55A4244A723C427A4DB3D602F7DBE5E7E6E244
      C636ACA56BFBDBF513DCBD4637839F5D7F04D1F703270D176E0F275B9F63D04D
      38A656B9926E7F67DDE1C28AAEA9548F76393D5BFCC2365EA0E95FD414E172C2
      DCCFBA2B62163AE0D1AD6B5FD7E27AFF0EFB638345F3AEB551F219CD6A55A4E7
      D657E74ABFE2AC60FD156F29938D2456617F3CA50FF1EC32577C79798762CA6D
      787F9262D813A4B979DCC5B1484597A80BD745CEB3EB3894958CC1ACE706D4C0
      6675AE96756088B3A243781F41C782268FC242E213F3662AC94FCF1AD9523067
      8EF09B381CDD7E630D570EAE5D54B8755A5993F8F1EDEB889A6B87E8851309E7
      E638407A80E7D6BF7BF512772E9D45F42247F85AF794BC007310FBD3EE721D55
      CE6F35CAFFF2F7E6CC1752D747F5322583C4875B0EC8DD42BE31549D138D907E
      2C13F858B4C6DE2DFEDFAC6BC273F863164D848F553BB26713B1F15986CA182B
      CEE1054D36121C38EEFE1E6BA52839D3606743D1CDDE0EC361DDB72C3DEF05E4
      DC3E2AFEF0C3F9748A755264BCCB07D2DF1F4E27C918989CFBA771F5FC31C17C
      99551FD221C60ACFAA7980F957F39A7D61B0E83B23A977BE2FD187748CB9C1A8
      E36F72CFF63D9B208E9E87C7C2E4518959E28C8D063509DB1EB87DFEF4DF8CAD
      60EE89A498D86FFC4069338B8C7B2A73CA4A170FD6C5F6EFAD07D1B85AF96692
      87649B5763CEDC1E60DF9F6C6604AE9D3CFCCD3A3EA73353E037AEAB8CA162DE
      D3D831DBF878755FB07EC7A662CB127F3B1B6A7116ACD5782BC5408E05121E9C
      5BBB74FA20F29F5D91B1F0ACB759FF7DBA92854F9733A57CA4D827E7F53D78AD
      9C8DC9D4F623880775B58682B9BA387E2DCCC1BAEF19738BEE4AAEC3B25F47F8
      8EE984ED7E6BD4739A9E62937123C42C76C2F387F774C683DDC0850399DAB9EB
      E7E9B5A7513D7A9E51E8D954897B1A5529D3ECDFB33E8466ADA01A657F0A943C
      C1E83EB9D1E45F031CF490B26191AC57A7D9F87E52372DC566B356E207425D46
      7F6BC7EA7E17CB9EBF2BB147FB2608A0F89BF374EC8774B1FEBE70DFA519C5EB
      270EEE947E418E6F2477CC797BF29DACBD79EE1EDBFAF3FB573071642B6CB41D
      285C12E8F82DC67F559887D9CEB90E4CD5F18F41D7DFE14B3A31C07E0062974E
      D5AE13F1F4DEED6FDAF7E523FBE033AE1B56B657E1EA71659DEE3B97CFC1D7AC
      1961D64F6CBD7A9912410AA6FFAEF5E4A55E1A562D5B87FF9F46AB8675B1D9B6
      7F018F29D6AE6D9A978B1B678ED1338E84BF6D6FB58DEB72869196333436AD89
      3F7A36AFC77D00E203147B5463CD7BB52EE33D7395692315B25263A8113FC3A7
      0717653EF617CEA7517C29B91DD2DF05AFEEE002C5F6E6CD55E4D78CC46EBFC7
      37506DDFDA42780790FF639DB7D97E0886B469A8ACC7D2B601368D6E89E475F3
      E5736FF33638BF3FF3BBB15A5F7024299A38BE05E95F4BB2EF5F88774E29EBF8
      EDDF85B5C32B15FCD94C72655F1A542E5DF73FB2164A2175FDD4A9F0B3AC3F3B
      6150C71C5E2BE1E18DABEAF97C77E0A9FFB3D29F4B76FE379CF103DE60ED3871
      B012D755AF50166EA67D241E94B85BCD09C15A3DAC2F7ED7BE970AEBE64F42CE
      DB2728208D9D9BFD10392FEFC91C1D2EB92FEF92C8788548DF55184FDA33748A
      F1B7F8FEA0309EC18E8AB65E61D117CD6B56907B1ADBFB0FB2F14138BF77873C
      E3D1D438E1733FD22CBB23FD70FDD451AA835D88A336B05E4F85CD96EDB16EA0
      0ABB82376AD7CB485CE10AABB6157278DDF5DAE57F9AAF8BE57F64ADC8217F36
      2E54BA58E1CB2A55492C37E92C79CA8FEAB676222301DE66BF13EE666A6EF801
      67B0DDB2ED93EDF27D86916F70EDF775FD2FCE95FA506CC87A3958DAFB57FB64
      BFB8726C3F8C6C4D5A6EE50C5C3B7340E6617F78791F9FB21FC9FCCB374F6FE3
      E08EAD3026CC975BF5D2C689DFDBB6D837E9142596D1871FE94987015FD7FF99
      3EA2B368E2800903B53A9DDB7606F1BBB7455BF88CED868DFA55A82D34C7FA21
      2A9CDDB35DE6EEB19F639F2BDCBE773BE6F650E5A92AD4C0CF450B5DE9DAA456
      A1FFE49A92524F752B96EECAF7D6A575B3824D666DB03BCC5B5BBF49D41EFD48
      3B8512AEDFE3CDBCC17C1F306130BC4C7E4356D866194F7CFDD87EACB3EC251A
      4772A8157FC62C8A5144F34E51748506AB60C27F15C5B1B6A4AD4711D73B1AB4
      C102077D2C771D87259347C379545B0C6BA882AB416BB1E3201D9C45474F540A
      1F0F635CE9D87CA3EEF8BD8EB2FE438F568D398E9731EB5CD7BE36BD49238FD1
      CE15E37979D10B2789360F9D6E415A650012D72DF81B2DC3E3DD3DCDFE44FB26
      F524FF55A742A96EFF95FF13524CBD8661ED0AA596CB98B0415D73D86F5C3AB2
      4F3B463E70C220D10A62EB6A8E103D433E9DF1DE327F02EE5C3CF3CD7DDE3879
      08DEA62D307B541F54282963C2D1AE512DCC1CD985F876A8700017E66AA943BA
      F666C26FF5985E70336E87F9239A62DEC816586ADA051BECF4B458FB4FFC16EB
      50676E37FA1C3762AE6137746B524B6BE3CE83DBC1CBA203821D06129E8394B6
      46BFE365FE2792372CD6AE73C96B0DB0ED04380C85BFFD606C59E08073FB760A
      E7DEBF7A11FB285EF11BD311E6DD9475836B9629EEAE8BDD7F756DDA2A3F1797
      F5F467EA77CF099DA44731C30365AE19F972C6906365B675B6718E1F7C4887F1
      3841CD3C5A5E4B25473D57E774563A368D6A4C9A6F34BCED87C1AEDB2F6A3CCA
      A27A8DEAE4837F274C7B4B1D044BEE435FC6EE47A87380E1AC93B8F0B8446745
      7787382918B35DF3BC511FF297CBCDFBC0A64F6BD4AFAED877B11A7561AFD705
      9EE4D783C6F7C5E1C42D325791FD236B18D1F6938DB1D1F01789FFB4EB455D3E
      8F4D264DA55E7C6DFB61837E35E29C16745E7DF8512C3343BFBBE8974A258B1C
      F947AD59ABF9BF16144BD528564895AD2A59090BF41AE7A57BBAE105D9FB76FF
      75E27B186FE6664FA3BA485ABF00CFEEDFD1DE37DBCCA18408ED9A6FC91E8B84
      3325AEA6F692B06C0A7C1D8D605D8B7847DB9F500E55AA56C5B0B68D3169503B
      2C18D58338819ED9661036D90D161DC2C58B5E6FA463ABE9B345C63DE0ACD71E
      FAED7F45EDCAE5C17E89EBB269496AABDC6F4D7ED0C7B439C51ADD11B77CBA56
      9F712CBAD9B28356E7B0FEDE30B2BCD8B5663BB5338570AE23711FDFB7460F2F
      B71C2879AFE2850B65572F5BB2C63FF27F8168347DADF2A584EBCB942B8F3596
      7DF283EC7AC1DBB2A38C11F132FD5D38F5E2A1DDDA7559647D7CE2242FD39612
      574BFEE6D50B4D5E5AEDEF8609EF7F267FCD73C153BDDCE13EBA33CC2AAAF0A7
      F4B3FCFCB7EBA2FE5C1E75EAD645ADDAB57FBC6E2AF9B68EB50AC1B4B60A737B
      92CE71B5C2DE88CDA2554EEC4846F8AC71846B65C232598BEBB51387C9775615
      2DCAF7C4FAD6735443F29F17B4F309B6525DF98CEB29FD4821C4636BACFAE517
      2954487EB366D992DDFE416BA57EBB165311652DC4DAE54B99296BE1552ED868
      37AC806372B6912CF2B76FD4EBE8E9AE15C2F9E1D5E41779BEBE669D0ACF518D
      103CC544FC14F3E5AB27DFAEE9F2FED5735CA1FA4B219EF530EB8065C65D243F
      38A1FF1F1483B546FF1A4A9D74967EA0C630A398C7BEDF1FE41FBA12FF77C5CA
      A155C93F8EC541E20A5E835C770EBBA6EE23E78E173D7843670ED8B1B4AD541F
      95C4DED9267C6DFB2382EA48B3BEE4E9AC34AC1F5145F2181EE30614D4AB58AA
      409DF732178CFE9BFEEF4AA9A28515BB2F5792E702A245C37AF96B4CDA176CDF
      ECAE33CF2417578E1D101B56F216D9D84DB6A69D4F9EB4059EC68DA5BD8A2F24
      9FC53A2279A39BF86BDDBAD3AC89CDF34483ECFB4BBB0E1CDF4FEA83E729B2B6
      126E171FAA2FF3E9787CE63DC2FAB3CE3AE6DCFED80FDEBD744E623EB16FD280
      1B0DEACA6F3F55AF71C2F3157704ACA7E3BF20C4C5546CDFD3A881D88FC62F79
      1BD5C1C6F1C30B1A572D93AFC6DC59179BFFAEAD6CF1226AEC7F9A2E6BF5D5AA
      5EE06ED4263F2B64231EDEBC463CB11CEB06A9C44E347196EEDA44F12B67515B
      ED21E31DB83D8BF6A036ED63DD1BEE6D54C2411C936BD6FC645F1C327534FC48
      4BB0D6F4219CDEA8D7DBE12DC36F1D58DF06F23C037B3DB996269E7F97FD0A87
      B6458916647FB2A617DBF7716D5BF4B5EE45BE6920F92653AD9D70AE65DB9A79
      F20C1EC354D2069415E10B9042BA79B941EBFCC6756A6AEC7CBA2E26FFDDFF6A
      A25C09655D4FFA5D47598FF8A7529837B8519E9F452B6C1ED345E110D2BC5E14
      739FCE4CD36A32CEE7B00F0E50C7315CB84DB3CDB10FD81F1B82F7D9AFBF59B3
      3DC36F2D365B7592F3BC4C5B6347E0066D5C2339918B67C93E6B13DE86629F1E
      C34BE1D2E13DDADFF334FE159BC7F6A0D20D6BFBAAC8CE8FC8679CBFF6346E22
      F7EA65D19EEC61A6766E34EBF6CB47F78B4ED4CED9D8998459DD5579556B293E
      45DDE6556A2CFE59FFDBA690D6EECBFF345A7C59A1329861D02B8773AA816CC7
      DCD740B6C736A35903969F99636FD6039AFE19D6649C63BD7FEDD237ED82B163
      CDEC25B63C5270657C6F5F506201CD3C2ED648511423F8DAF49573BCCCDB22DD
      6795F65ADB8937368FE98C4CE2A47B572F68DB50DAE69574BCAB126FD1FD789A
      3493639AB9905FEF254FD6DDB06BA6CA5115ABA0C6FC2753596B53C1E09FFEFF
      847E52731AF9F2CE258B167E29EBAB766996E363AF5710CA39A7B1DD91B066AE
      B62F6A5F7410F9D426D227EF65DE8EDA7E579C244D91F3F9EBFF8A638EE198D0
      634479E2FE215277CC47AC9B23E7D8C9FA3AB27E575480966F4E9246E1FA637B
      F797F866A0F633B679CDBC7F8DCF38B17D9BF0886876BABEFF043DD9734E6CAB
      BB2B6E9C3D41DAF206C5778711BD7C7A415F1561AEAA889F8A167955A374B12E
      BACFFE3FB51553FBF0AAA58B57A5D88AC743A155ED8A05EEA46B7DCDFFC09E48
      5FADBFDD2231F700C2BB0752372DD3F97F1A4ADB3E921C43F5D186B46927AD9E
      F3771822F6B881DAC9B1B478F53CC56C8A637EC3F5D3C7B4F1810FC56AA2FFF8
      DC91158427341BD72BCF9DD6E812C6FEE9BD5BD8B2681236120F497D31F6E473
      BCC774239D5E1DBE140FCDECA4CAABA25215F0BA3F557E2ABABF4AC922D5749F
      F97F7AD3D5ACC47B8B353A7A5C9F3F723698772E38BF2743FE370CFB4EF6813B
      83367EBBF631D9156B6A8E01B9FF879F9FF156CA50F107DE561DF15CBDCE03E7
      A5E6D1F51356CF150DA2E1934D1443F0F739D64FF35EF1F57F05856FC6EADE2A
      F90D8D1ED7F497B2FF583744053F751DB32EDAEC30A2C0A67FFB1C55859A50FD
      540E354B175DFCA367FD17D98A34AB515EB8AE4EF99F3A942D5EF89CE4884AA9
      30A99D2A2768AA4901C7F69EC68D844B7463D9E48D4BC4DF7A522CCEF52258AB
      7108E07E638BB648219DA48D71C84F1CCFD826F3E53436CCFE75834175E927E5
      EFFB8DEFAF9D4B7A95FD0AD9B51F5D6F83616D8A9D92BE99077D66773A026C7B
      709EB2C07578C79CFA9594588D7CD8397E167EA616B52A1452FDEBFE3FD64245
      75DA60ED72255867BDE758BD6DED529C9BCAF5B1ED5F70343112CF087BDDFF0D
      C7DCC1BA9F7D9BAF6D1FE10D7FC25E7CF3C8725A4EF9AB8DDB4D14C5603EA40D
      D9E63D469425DFBC57BDAEC22B6DDBE1EBB17DA7FBAEC19BE74FF09034CB9EE8
      A082D9233BE4766CACFDBFDCEF6B972FE9AA4DCC2ACFF4BFE1FF3F6BEDA241A5
      52D56B962BB9895AA8E431DA37AAC1DA2077F5C8FAF909EED3719AFCAA6E9FA5
      463FA67ABB13B774821FF12EC7309ABCFFBDAB97706A571ACEEEDB8933C43717
      0EEED1E6DBD8477B8C288D20F2DBDC6E38E7A0FD7F9391FED860D448C9ED93E6
      F2B5EA000FF3CEF9B68D55B93A3986BCEA658A7B35A85CBAFA8F9EE57FC95648
      B70FBD51D5320DAA9729B149ECBF504534A8570786CD54F9AEED55B91B46B7CE
      4F5C3D5BFEDF09AFBBCA1C10B7622636DBF4215EA88783DBA2B4BE397C963556
      51FCB341BF067D565762AD7B6A9DFD9ABEBB795C4FAAAB2152D8F6DFBC7C2651
      CF518A93379BB5848FC3F0FC2526DD73AD7AB7C9AF5D997461914A5055AAFEBE
      7AE9629B1A5529D3E0BBB115FF9BFFC77961DDBEAE66352B54AF53BEE40C9EBB
      498F0655F91A68DDA82E0C1AAB0A263551E5AE31EB9217B3746A7EE0844105DC
      07E46BD55EC68888AD934F64DF193CD544C6E40671CC437A9DB5B9F857D2FD3B
      033DE063D1466C3A607C3FC4AF9997EF3B6D4CDEF43E35722D7BFE5ED0BC86EE
      FF952F72A94E8552339A562F5BFDBB3ECEC2AAFF3B5BE1EFFB5F1A572DD3BD4A
      A962BCFED00DC9D99623FD50B4389A1126A3BB3483F3A03FF31699F4CCF59935
      21376481739EDF64933C6F9B7EF9BEF67AF9C43F527CED07E7FB8C1F941F3ACF
      218FCFD9E8689A3B5FBF7DEE64BD76793C4EFD372DC6DA71FB372BD36FD26FF7
      F841FFDAFF25BC7FD497F20DFE637AB628D2B446B976B5CA16772D5ABC788AAA
      58D97B3FCAEFD629AC429BFAD5D0B16155F4F8ADA6948E8DAAE18F7A9551E6AF
      FE9756C9F2F7CA54A89852B34C7157FE0DCBEE2D8AFE00EF42AAFFB7B6223FEA
      831CF667C392147BFDD6A84AE9E135CB96985EBD5A55AF3295AB26AA0A9738A0
      5E83F11A955BEA724D8EFD5CFE40994A55122B962BE34531E574E2EAE1748DA6
      7CADBFE83B2EA2FAFFB7423A75F06FE2B1DCAC676187FE7F14E3C2AFFF03F55B
      E45FC5B6FF3FDBBC7276
    }
  end
end
